$ Stage 1 cantilever. 2 elements through thickness, h = 0.400 mm.
$ ELFORM -1: fully integrated S/R, handles poor aspect ratio - baseline
$ Linear elastic, no contact. Units mm-tonne-s-N-MPa.
*KEYWORD
*TITLE
Stage1 n2 elform-1
*CONTROL_TERMINATION
5.5000E-03
*CONTROL_TIMESTEP
$#  dtinit    tssfac      isdo    tslimt     dt2ms
       0.0       0.9         0       0.0       0.0
$ dt2ms = 0, so no mass scaling. Check the cycle count in d3hsp before
$ putting that claim in the report.
*CONTROL_ENERGY
$#    hgen      rwen    slnten     rylen
         2         2         2         2
$ hgen must be 2. On the default, glstat reports zero hourglass energy,
$ which is not the same as there being none.
*DATABASE_GLSTAT
1.0000E-05
*DATABASE_MATSUM
1.0000E-05
*DATABASE_SPCFORC
1.0000E-05
*DATABASE_BNDOUT
1.0000E-05
*DATABASE_NODOUT
1.0000E-05
*DATABASE_BINARY_D3PLOT
2.5000E-04
*PART
Lance
$#     pid     secid       mid     eosid      hgid
         1         1         1         0         0
*SECTION_SOLID
         1        -1
*MAT_ELASTIC
$#     mid        ro         e        pr
         1 1.530E-09    9800.0      0.35
*NODE
       1      0.00000000      0.00000000      0.00000000
       2      0.00000000      0.00000000      0.40000000
       3      0.00000000      0.00000000      0.80000000
       4      0.00000000      0.41666667      0.00000000
       5      0.00000000      0.41666667      0.40000000
       6      0.00000000      0.41666667      0.80000000
       7      0.00000000      0.83333333      0.00000000
       8      0.00000000      0.83333333      0.40000000
       9      0.00000000      0.83333333      0.80000000
      10      0.00000000      1.25000000      0.00000000
      11      0.00000000      1.25000000      0.40000000
      12      0.00000000      1.25000000      0.80000000
      13      0.00000000      1.66666667      0.00000000
      14      0.00000000      1.66666667      0.40000000
      15      0.00000000      1.66666667      0.80000000
      16      0.00000000      2.08333333      0.00000000
      17      0.00000000      2.08333333      0.40000000
      18      0.00000000      2.08333333      0.80000000
      19      0.00000000      2.50000000      0.00000000
      20      0.00000000      2.50000000      0.40000000
$ ... 422 like lines cut
*ELEMENT_SOLID
       1       1
       1      22      25       4       2      23      26       5
       2       1
       2      23      26       5       3      24      27       6
       3       1
       4      25      28       7       5      26      29       8
       4       1
       5      26      29       8       6      27      30       9
       5       1
       7      28      31      10       8      29      32      11
       6       1
       8      29      32      11       9      30      33      12
       7       1
      10      31      34      13      11      32      35      14
       8       1
      11      32      35      14      12      33      36      15
       9       1
      13      34      37      16      14      35      38      17
      10       1
      14      35      38      17      15      36      39      18
$ ... 460 like lines cut
*SET_NODE_LIST
         1
         1         2         3         4         5         6         7         8
         9        10        11        12        13        14        15        16
        17        18        19        20        21
*SET_NODE_LIST
         2
       421       422       423       424       425       426       427       428
       429       430       431       432       433       434       435       436
       437       438       439       440       441
*SET_NODE_LIST
         3
        12        33        54        75        96       117       138       159
       180       201       222       243       264       285       306       327
       348       369       390       411       432
*SET_NODE_LIST
         4
       442       421       422       423       424       425       426       427
       428       429       430       431       432       433       434       435
       436       437       438       439       440       441
*DATABASE_HISTORY_NODE_SET
$ *DATABASE_NODOUT on its own writes a header and no data - it needs to be
$ told which nodes to trace. Set 3 is the line of nodes from root to tip
$ used for the deflected-shape check.
         3
*DATABASE_HISTORY_NODE
$ Control node as well. Its z displacement is the tip deflection the
$ analytical solution is written for, and it must read -0.600.
       442
*BOUNDARY_SPC_SET
$ Root face, all degrees of freedom. This is the perfect clamp.
$#    nsid       cid      dofx      dofy      dofz     dofrx     dofry     dofrz
         1         0         1         1         1         1         1         1
*CONSTRAINED_NODAL_RIGID_BODY
$ Tip face plus the control node, tied into one rigid body.
$
$ Beam theory says plane sections remain plane, and this is that sentence
$ written as a constraint. It matters because the tip rotates 6.4 deg here:
$ a plane section rotated by theta projects shorter onto z by t(1-cos theta),
$ so prescribing the same z displacement at every node of the face - the
$ obvious way to do it - forbids that projection change and forces a
$ through-thickness strain of theta^2/2 into the tip elements. At this
$ deflection that is 0.63 %, against a root bending strain of 1.125 %.
$
$ The rigid body has no rotational constraint, so the section is free to
$ rotate. Only the z translation is prescribed.
$#     pid       cid      nsid     pnode      iprt    drflag    rrflag
         2         0         4         0         0         0         0
*ELEMENT_MASS
$ Added to the rigid body, not replacing what it gets from the mesh.
$#     eid        id            mass
   90001     442      1.0000E-10
*ELEMENT_INERTIA
$ Without this the run error terminates: a flat plane of nodes free to
$ rotate has almost no inertia about the bending axis, and the angular
$ accelerations that follow are not integrable at this time step.
$#     eid        id      csid
   90002     442
$#     ixx       ixy       ixz       iyy       iyz       izz
 1.000E-09       0.0       0.0 1.000E-09       0.0 1.000E-09
*BOUNDARY_PRESCRIBED_MOTION_RIGID
$ Applied to the rigid body, not to a node of it. The body's z translation
$ follows the curve; x, y and all three rotations stay free.
$#     pid       dof       vad      lcid        sf
         2         3         2         1       1.0
*DEFINE_CURVE
         1
    0.0000000000E+00   -0.0000000000E+00
    1.0000000000E-05   -4.7856115200E-08
    2.0000000000E-05   -3.8169968640E-07
    3.0000000000E-05   -1.2843639936E-06
    4.0000000000E-05   -3.0352539648E-06
    5.0000000000E-05   -5.9103600000E-06
    6.0000000000E-05   -1.0182271795E-05
    7.0000000000E-05   -1.6120192166E-05
    8.0000000000E-05   -2.3989950874E-05
    9.0000000000E-05   -3.4054018445E-05
    1.0000000000E-04   -4.6571520000E-05
    1.1000000000E-04   -6.1798249075E-05
    1.2000000000E-04   -7.9986681446E-05
    1.3000000000E-04   -1.0138598895E-04
    1.4000000000E-04   -1.2624205332E-04
    1.5000000000E-04   -1.5479748000E-04
    1.6000000000E-04   -1.8729161196E-04
    1.7000000000E-04   -2.2396054353E-04
    1.8000000000E-04   -2.6503713423E-04
$ ... 483 like lines cut
*END
