$ Stage 3 locking cycle - lance_only
$ mu 0.00, no terminal, no TPA
*KEYWORD
*TITLE
Stage3 lance_only
*CONTROL_TERMINATION
5.5000E-03
*CONTROL_TIMESTEP
$#  dtinit    tssfac      isdo    tslimt     dt2ms
       0.0       0.9         0       0.0       0.0
*CONTROL_ENERGY
$#    hgen      rwen    slnten     rylen
         2         2         2         2
*DATABASE_GLSTAT
1.0000E-05
*DATABASE_MATSUM
1.0000E-05
*DATABASE_NODOUT
1.0000E-05
*DATABASE_BNDOUT
1.0000E-05
*DATABASE_SPCFORC
5.0000E-07
*DATABASE_RCFORC
5.0000E-07
*DATABASE_BINARY_D3PLOT
1.2500E-04
*PART
Lance
$#     pid     secid       mid     eosid      hgid
         1         1         1         0         0
*SECTION_SOLID
         1        -1
*MAT_ELASTIC
$#     mid        ro         e        pr
         1 1.530E-09    9800.0      0.35
*NODE
       1      0.00000000      0.00000000      0.00000000
       2      0.00000000      0.00000000      0.20000000
       3      0.00000000      0.00000000      0.40000000
       4      0.00000000      0.00000000      0.60000000
       5      0.00000000      0.00000000      0.80000000
       6      0.00000000      0.41666667      0.00000000
       7      0.00000000      0.41666667      0.20000000
       8      0.00000000      0.41666667      0.40000000
       9      0.00000000      0.41666667      0.60000000
      10      0.00000000      0.41666667      0.80000000
      11      0.00000000      0.83333333      0.00000000
      12      0.00000000      0.83333333      0.20000000
      13      0.00000000      0.83333333      0.40000000
      14      0.00000000      0.83333333      0.60000000
      15      0.00000000      0.83333333      0.80000000
      16      0.00000000      1.25000000      0.00000000
      17      0.00000000      1.25000000      0.20000000
      18      0.00000000      1.25000000      0.40000000
      19      0.00000000      1.25000000      0.60000000
      20      0.00000000      1.25000000      0.80000000
$ ... 1766 like lines cut
*ELEMENT_SOLID
       1       1
       1      36      41       6       2      37      42       7
       2       1
       2      37      42       7       3      38      43       8
       3       1
       3      38      43       8       4      39      44       9
       4       1
       4      39      44       9       5      40      45      10
       5       1
       6      41      46      11       7      42      47      12
       6       1
       7      42      47      12       8      43      48      13
       7       1
       8      43      48      13       9      44      49      14
       8       1
       9      44      49      14      10      45      50      15
       9       1
      11      46      51      16      12      47      52      17
      10       1
      12      47      52      17      13      48      53      18
$ ... 2380 like lines cut
*SET_NODE_LIST
         1
         1         2         3         4         5         6         7         8
         9        10        11        12        13        14        15        16
        17        18        19        20        21        22        23        24
        25        26        27        28        29        30        31        32
        33        34        35
*SET_NODE_LIST
         2
      1751      1752      1753      1754      1755      1756      1757      1758
      1759      1760      1761      1762      1763      1764      1765      1766
      1767      1768      1769      1770      1771      1772      1773      1774
      1775      1776      1777      1778      1779      1780      1781      1782
      1783      1784      1785
*SET_NODE_LIST
         3
        20        55        90       125       160       195       230       265
       300       335       370       405       440       475       510       545
       580       615       650       685       720       755       790       825
       860       895       930       965      1000      1035      1070      1105
      1140      1175      1210      1245      1280      1315      1350      1385
      1420      1455      1490      1525      1560      1595      1630      1665
      1700      1735      1770
*SET_NODE_LIST
         4
      1786      1751      1752      1753      1754      1755      1756      1757
      1758      1759      1760      1761      1762      1763      1764      1765
      1766      1767      1768      1769      1770      1771      1772      1773
      1774      1775      1776      1777      1778      1779      1780      1781
      1782      1783      1784      1785
*SET_NODE_LIST
         5
        16        51        86       121       156       191       226       261
       296       331       366       401       436       471       506       541
       576       611       646       681       716       751       786       821
       856       891       926       961       996      1031      1066      1101
      1136      1171      1206      1241      1276      1311      1346      1381
      1416      1451      1486      1521      1556      1591      1626      1661
      1696      1731      1766
*DATABASE_HISTORY_NODE_SET
$ Set 3 is the top surface root to tip, set 5 the underside - the
$ underside is where the tooth is, so that is the line that says how
$ far the crest has lifted and whether it has cleared.
         3         5
*DATABASE_HISTORY_NODE
      1786
*BOUNDARY_SPC_SET
$#    nsid       cid      dofx      dofy      dofz     dofrx     dofry     dofrz
         1         0         1         1         1         1         1         1
*CONSTRAINED_NODAL_RIGID_BODY
$#     pid       cid      nsid     pnode      iprt    drflag    rrflag
         4         0         4         0         0         0         0
*ELEMENT_MASS
   90001    1786      1.0000E-10
*ELEMENT_INERTIA
   90002    1786
 1.000E-09       0.0       0.0 1.000E-09       0.0 1.000E-09
*BOUNDARY_PRESCRIBED_MOTION_RIGID
$#     pid       dof       vad      lcid        sf
         4         3         2         1       1.0
*DEFINE_CURVE
         1
    0.0000000000E+00    0.0000000000E+00
    1.0000000000E-05    4.7856115200E-08
    2.0000000000E-05    3.8169968640E-07
    3.0000000000E-05    1.2843639936E-06
    4.0000000000E-05    3.0352539648E-06
    5.0000000000E-05    5.9103600000E-06
    6.0000000000E-05    1.0182271795E-05
    7.0000000000E-05    1.6120192166E-05
    8.0000000000E-05    2.3989950874E-05
    9.0000000000E-05    3.4054018445E-05
    1.0000000000E-04    4.6571520000E-05
    1.1000000000E-04    6.1798249075E-05
    1.2000000000E-04    7.9986681446E-05
    1.3000000000E-04    1.0138598895E-04
    1.4000000000E-04    1.2624205332E-04
    1.5000000000E-04    1.5479748000E-04
    1.6000000000E-04    1.8729161196E-04
    1.7000000000E-04    2.2396054353E-04
    1.8000000000E-04    2.6503713423E-04
$ ... 483 like lines cut
*END
