$ Stage 2. Rigid plate inclined 30 deg from the insertion axis,
$ Coulomb friction mu = 0.00, plate travel 1.0566 mm.
$
$ Expected W/P = (tan a + mu)/(1 - mu tan a) = 0.5774
$ with W = summed x reaction and P = summed z reaction at the root,
$ both from spcforc at the same instant, taken during the hold.
$
$ Lance geometry and material are identical to Stage 1. Units mm-tonne-s-N-MPa.
*KEYWORD
*TITLE
Stage2 a30 mu0.00 n4
*CONTROL_TERMINATION
5.5000E-03
*CONTROL_TIMESTEP
$#  dtinit    tssfac      isdo    tslimt     dt2ms
       0.0       0.9         0       0.0       0.0
$ dt2ms = 0, so no mass scaling. The rigid plate does not enter the
$ time step calculation - the lance sets it, as in Stage 1.
*CONTROL_ENERGY
$#    hgen      rwen    slnten     rylen
         2         2         2         2
$ slnten must be 2 or glstat reports no sliding interface energy, which
$ is the one number that tells whether the contact is injecting energy.
*DATABASE_GLSTAT
1.0000E-05
*DATABASE_MATSUM
1.0000E-05
*DATABASE_SPCFORC
1.0000E-05
*DATABASE_RCFORC
1.0000E-05
*DATABASE_NODOUT
1.0000E-05
*DATABASE_BINARY_D3PLOT
2.5000E-04
*PART
Lance
$#     pid     secid       mid
         1         1         1
*SECTION_SOLID
$#   secid    elform
         1        -1
*MAT_ELASTIC
$#     mid        ro         e        pr
         1 1.530E-09    9800.0      0.35
*PART
Plate
$#     pid     secid       mid
         2         2         2
*SECTION_SOLID
$#   secid    elform
         2         1
*MAT_RIGID
$#     mid        ro         e        pr
         2 7.850E-09    9800.0      0.30
$ cmo = 1 with con1 = 5 locks y and z, con2 = 7 locks all rotations.
$ x is left free because x is what the prescribed motion drives.
$#     cmo      con1      con2
       1.0         5         7
$ Third card, and it is not optional. *MAT_RIGID expects it even when
$ there is no local system to define; leave it out and the reader walks
$ into the next keyword and stops with a format error on this card.
$#     lco        a1        a2        a3        v1        v2        v3
         0       0.0       0.0       0.0       0.0       0.0       0.0
*NODE
       1      0.00000000      0.00000000      0.00000000
       2      0.00000000      0.00000000      0.20000000
       3      0.00000000      0.00000000      0.40000000
       4      0.00000000      0.00000000      0.60000000
       5      0.00000000      0.00000000      0.80000000
       6      0.00000000      0.41666667      0.00000000
       7      0.00000000      0.41666667      0.20000000
       8      0.00000000      0.41666667      0.40000000
       9      0.00000000      0.41666667      0.60000000
      10      0.00000000      0.41666667      0.80000000
      11      0.00000000      0.83333333      0.00000000
      12      0.00000000      0.83333333      0.20000000
      13      0.00000000      0.83333333      0.40000000
      14      0.00000000      0.83333333      0.60000000
      15      0.00000000      0.83333333      0.80000000
      16      0.00000000      1.25000000      0.00000000
      17      0.00000000      1.25000000      0.20000000
      18      0.00000000      1.25000000      0.40000000
      19      0.00000000      1.25000000      0.60000000
      20      0.00000000      1.25000000      0.80000000
$ ... 1793 like lines cut
*ELEMENT_SOLID
       1       1
       1      36      41       6       2      37      42       7
       2       1
       2      37      42       7       3      38      43       8
       3       1
       3      38      43       8       4      39      44       9
       4       1
       4      39      44       9       5      40      45      10
       5       1
       6      41      46      11       7      42      47      12
       6       1
       7      42      47      12       8      43      48      13
       7       1
       8      43      48      13       9      44      49      14
       8       1
       9      44      49      14      10      45      50      15
       9       1
      11      46      51      16      12      47      52      17
      10       1
      12      47      52      17      13      48      53      18
$ ... 2308 like lines cut
*SET_NODE_LIST
         1
         1         2         3         4         5         6         7         8
         9        10        11        12        13        14        15        16
        17        18        19        20        21        22        23        24
        25        26        27        28        29        30        31        32
        33        34        35
*SET_NODE_LIST
         3
        20        55        90       125       160       195       230       265
       300       335       370       405       440       475       510       545
       580       615       650       685       720       755       790       825
       860       895       930       965      1000      1035      1070      1105
      1140      1175      1210      1245      1280      1315      1350      1385
      1420
*DATABASE_HISTORY_NODE_SET
$ The node line from root to tip. Its tip node is the contact point, and
$ its z displacement must reach -0.600 at the end of the ramp.
         3
*BOUNDARY_SPC_SET
$ Root face, all degrees of freedom - unchanged from Stage 1.
$#    nsid       cid      dofx      dofy      dofz     dofrx     dofry     dofrz
         1         0         1         1         1         1         1         1
*CONTACT_AUTOMATIC_ONE_WAY_SURFACE_TO_SURFACE
$ Deformable lance as slave, rigid plate as master. One-way, so slave
$ nodes are checked against master segments and not the reverse - which is
$ what you want when the master is rigid.
$
$ Not a FORMING contact. Those are written for shell blanks and reject
$ solid elements outright; this lance is meshed with hexes.
$#    ssid      msid     sstyp     mstyp
         1         2         3         3
$ fs = fd and dc = 0, so friction is plain Coulomb with no velocity
$ dependence - which is what the closed-form relation assumes. vdc = 0:
$ no contact damping, because damping would add force to the quantity
$ being measured.
$#      fs        fd        dc        vc       vdc    penchk
      0.00      0.00       0.0       0.0       0.0         0
$#     sfs       sfm       sst       mst      sfst      sfmt       fsf       vsf
       1.0       1.0       0.0       0.0       1.0       1.0       1.0       1.0
*BOUNDARY_PRESCRIBED_MOTION_RIGID
$ Plate driven along -x. The inclined face converts that into the
$ transverse deflection of the lance - nothing is prescribed on the lance.
$#     pid       dof       vad      lcid        sf
         2         1         2         1       1.0
*DEFINE_CURVE
         1
    0.0000000000E+00   -0.0000000000E+00
    1.0000000000E-05   -8.4270710029E-08
    2.0000000000E-05   -6.7214197091E-07
    3.0000000000E-05   -2.2616600872E-06
    4.0000000000E-05   -5.3448343156E-06
    5.0000000000E-05   -1.0407661208E-05
    6.0000000000E-05   -1.7930148954E-05
    7.0000000000E-05   -2.8386341724E-05
    8.0000000000E-05   -4.2244344014E-05
    9.0000000000E-05   -5.9966344984E-05
    1.0000000000E-04   -8.2008642806E-05
    1.1000000000E-04   -1.0882166900E-04
    1.2000000000E-04   -1.4085001280E-04
    1.3000000000E-04   -1.7853244544E-04
    1.4000000000E-04   -2.2230194458E-04
    1.5000000000E-04   -2.7258571858E-04
    1.6000000000E-04   -3.2980523087E-04
    1.7000000000E-04   -3.9437622428E-04
    1.8000000000E-04   -4.6670874542E-04
$ ... 483 like lines cut
*END
