$ Stage 3 locking cycle - insert_mu020
$ mu 0.20, insertion, no TPA
*KEYWORD
*TITLE
Stage3 insert_mu020
*CONTROL_TERMINATION
3.1000E-02
*CONTROL_TIMESTEP
$#  dtinit    tssfac      isdo    tslimt     dt2ms
       0.0       0.9         0       0.0       0.0
*CONTROL_ENERGY
$#    hgen      rwen    slnten     rylen
         2         2         2         2
*DATABASE_GLSTAT
4.0000E-05
*DATABASE_MATSUM
4.0000E-05
*DATABASE_NODOUT
4.0000E-05
*DATABASE_BNDOUT
4.0000E-05
*DATABASE_SPCFORC
5.0000E-07
*DATABASE_RCFORC
5.0000E-07
*DATABASE_BINARY_D3PLOT
7.5000E-04
*PART
Lance
$#     pid     secid       mid     eosid      hgid
         1         1         1         0         0
*SECTION_SOLID
         1        -1
*MAT_ELASTIC
$#     mid        ro         e        pr
         1 1.530E-09    9800.0      0.35
*PART
Terminal
$#     pid     secid       mid     eosid      hgid
         2         2         2         0         0
*SECTION_SOLID
         2         1
*MAT_RIGID
$#     mid        ro         e        pr
         2 7.850E-09    9800.0      0.30
$#     cmo      con1      con2
       1.0         5         7
$ third card, mandatory even when empty
         0       0.0       0.0       0.0       0.0       0.0       0.0
*NODE
       1      0.00000000      0.00000000      0.00000000
       2      0.00000000      0.00000000      0.20000000
       3      0.00000000      0.00000000      0.40000000
       4      0.00000000      0.00000000      0.60000000
       5      0.00000000      0.00000000      0.80000000
       6      0.00000000      0.41666667      0.00000000
       7      0.00000000      0.41666667      0.20000000
       8      0.00000000      0.41666667      0.40000000
       9      0.00000000      0.41666667      0.60000000
      10      0.00000000      0.41666667      0.80000000
      11      0.00000000      0.83333333      0.00000000
      12      0.00000000      0.83333333      0.20000000
      13      0.00000000      0.83333333      0.40000000
      14      0.00000000      0.83333333      0.60000000
      15      0.00000000      0.83333333      0.80000000
      16      0.00000000      1.25000000      0.00000000
      17      0.00000000      1.25000000      0.20000000
      18      0.00000000      1.25000000      0.40000000
      19      0.00000000      1.25000000      0.60000000
      20      0.00000000      1.25000000      0.80000000
$ ... 2354 like lines cut
*ELEMENT_SOLID
       1       1
       1      36      41       6       2      37      42       7
       2       1
       2      37      42       7       3      38      43       8
       3       1
       3      38      43       8       4      39      44       9
       4       1
       4      39      44       9       5      40      45      10
       5       1
       6      41      46      11       7      42      47      12
       6       1
       7      42      47      12       8      43      48      13
       7       1
       8      43      48      13       9      44      49      14
       8       1
       9      44      49      14      10      45      50      15
       9       1
      11      46      51      16      12      47      52      17
      10       1
      12      47      52      17      13      48      53      18
$ ... 3100 like lines cut
*SET_NODE_LIST
         1
         1         2         3         4         5         6         7         8
         9        10        11        12        13        14        15        16
        17        18        19        20        21        22        23        24
        25        26        27        28        29        30        31        32
        33        34        35
*SET_NODE_LIST
         2
      1751      1752      1753      1754      1755      1756      1757      1758
      1759      1760      1761      1762      1763      1764      1765      1766
      1767      1768      1769      1770      1771      1772      1773      1774
      1775      1776      1777      1778      1779      1780      1781      1782
      1783      1784      1785
*SET_NODE_LIST
         3
        20        55        90       125       160       195       230       265
       300       335       370       405       440       475       510       545
       580       615       650       685       720       755       790       825
       860       895       930       965      1000      1035      1070      1105
      1140      1175      1210      1245      1280      1315      1350      1385
      1420      1455      1490      1525      1560      1595      1630      1665
      1700      1735      1770
*SET_NODE_LIST
         4
      1786      1751      1752      1753      1754      1755      1756      1757
      1758      1759      1760      1761      1762      1763      1764      1765
      1766      1767      1768      1769      1770      1771      1772      1773
      1774      1775      1776      1777      1778      1779      1780      1781
      1782      1783      1784      1785
*SET_NODE_LIST
         5
        16        51        86       121       156       191       226       261
       296       331       366       401       436       471       506       541
       576       611       646       681       716       751       786       821
       856       891       926       961       996      1031      1066      1101
      1136      1171      1206      1241      1276      1311      1346      1381
      1416      1451      1486      1521      1556      1591      1626      1661
      1696      1731      1766
*DATABASE_HISTORY_NODE_SET
$ Set 3 is the top surface root to tip, set 5 the underside - the
$ underside is where the tooth is, so that is the line that says how
$ far the crest has lifted and whether it has cleared.
         3         5
*DATABASE_HISTORY_NODE
      1786
*BOUNDARY_SPC_SET
$#    nsid       cid      dofx      dofy      dofz     dofrx     dofry     dofrz
         1         0         1         1         1         1         1         1
*BOUNDARY_PRESCRIBED_MOTION_RIGID
$ The terminal is driven along its own axis. Nothing is prescribed
$ on the lance at all - it is loaded only through the tooth.
$#     pid       dof       vad      lcid        sf
         2         1         2         1       1.0
*CONTACT_AUTOMATIC_SURFACE_TO_SURFACE
$ TWO-WAY, and the one-way version is why the first insertion run
$ died of element distortion.
$
$ One-way checks slave NODES against master SEGMENTS and nothing
$ else. The terminal's leading edge is a sharp rigid corner that
$ travels the whole length of the tooth, and a master corner can sit
$ inside a slave element face, between its nodes, entirely
$ undetected. It gouged its way along the lead-in face from about
$ 4 ms and the run terminated at 10.1 ms with the corner under the
$ retention face. Two-way checks both sides, so the corner is a node
$ against the lance's faces as well.
$
$ Stage 2 put the ramp on the rigid master so the normal could not
$ rotate. Here it is on the lance, because that is where it is on the
$ part - the rotation of the normal is the thing being measured.
$#    ssid      msid     sstyp     mstyp
         1         2         3         3
$#      fs        fd        dc        vc       vdc    penchk
      0.20      0.20       0.0       0.0       0.0         0
$#     sfs       sfm       sst       mst      sfst      sfmt       fsf       vsf
       1.0       1.0       0.0       0.0       1.0       1.0       1.0       1.0
*DEFINE_CURVE
         1
    0.0000000000E+00   -0.0000000000E+00
    6.0000000000E-05   -3.1100337210E-07
    1.2000000000E-04   -2.4805584219E-06
    1.8000000000E-04   -8.3467187285E-06
    2.4000000000E-04   -1.9725257980E-05
    3.0000000000E-04   -3.8409759811E-05
    3.6000000000E-04   -6.6171707643E-05
    4.2000000000E-04   -1.0476057452E-04
    4.8000000000E-04   -1.5590391295E-04
    5.4000000000E-04   -2.2130744474E-04
    6.0000000000E-04   -3.0265515083E-04
    6.6000000000E-04   -4.0160936114E-04
    7.2000000000E-04   -5.1981084442E-04
    7.8000000000E-04   -6.5887889806E-04
    8.4000000000E-04   -8.2041143793E-04
    9.0000000000E-04   -1.0059850882E-03
    9.6000000000E-04   -1.2171552714E-03
    1.0200000000E-03   -1.4554562978E-03
    1.0800000000E-03   -1.7224014556E-03
$ ... 483 like lines cut
*END
